*SPEF "ieee 1481-1999"
*DESIGN "user_project_wrapper"
*DATE "11:11:11 Fri 11 11, 1111"
*VENDOR "OpenRCX"
*PROGRAM "Parallel Extraction"
*VERSION "1.0"
*DESIGN_FLOW "NAME_SCOPE LOCAL" "PIN_CAP NONE"
*DIVIDER /
*DELIMITER :
*BUS_DELIMITER []
*T_UNIT 1 NS
*C_UNIT 1 PF
*R_UNIT 1 OHM
*L_UNIT 1 HENRY

*NAME_MAP
*1 io_in[0]
*2 io_in[10]
*3 io_in[11]
*4 io_in[12]
*5 io_in[13]
*6 io_in[14]
*7 io_in[15]
*8 io_in[16]
*9 io_in[17]
*10 io_in[18]
*11 io_in[19]
*12 io_in[1]
*13 io_in[20]
*14 io_in[21]
*15 io_in[22]
*16 io_in[23]
*17 io_in[24]
*18 io_in[25]
*19 io_in[26]
*20 io_in[27]
*21 io_in[28]
*22 io_in[29]
*23 io_in[2]
*24 io_in[30]
*25 io_in[31]
*26 io_in[32]
*27 io_in[33]
*28 io_in[34]
*29 io_in[35]
*30 io_in[36]
*31 io_in[37]
*32 io_in[3]
*33 io_in[4]
*34 io_in[5]
*35 io_in[6]
*36 io_in[7]
*37 io_in[8]
*38 io_in[9]
*39 io_oeb[0]
*40 io_oeb[10]
*41 io_oeb[11]
*42 io_oeb[12]
*43 io_oeb[13]
*44 io_oeb[14]
*45 io_oeb[15]
*46 io_oeb[16]
*47 io_oeb[17]
*48 io_oeb[18]
*49 io_oeb[19]
*50 io_oeb[1]
*51 io_oeb[20]
*52 io_oeb[21]
*53 io_oeb[22]
*54 io_oeb[23]
*55 io_oeb[24]
*56 io_oeb[25]
*57 io_oeb[26]
*58 io_oeb[27]
*59 io_oeb[28]
*60 io_oeb[29]
*61 io_oeb[2]
*62 io_oeb[30]
*63 io_oeb[31]
*64 io_oeb[32]
*65 io_oeb[33]
*66 io_oeb[34]
*67 io_oeb[35]
*68 io_oeb[36]
*69 io_oeb[37]
*70 io_oeb[3]
*71 io_oeb[4]
*72 io_oeb[5]
*73 io_oeb[6]
*74 io_oeb[7]
*75 io_oeb[8]
*76 io_oeb[9]
*77 io_out[0]
*78 io_out[10]
*79 io_out[11]
*80 io_out[12]
*81 io_out[13]
*82 io_out[14]
*83 io_out[15]
*84 io_out[16]
*85 io_out[17]
*86 io_out[18]
*87 io_out[19]
*88 io_out[1]
*89 io_out[20]
*90 io_out[21]
*91 io_out[22]
*92 io_out[23]
*93 io_out[24]
*94 io_out[25]
*95 io_out[26]
*96 io_out[27]
*97 io_out[28]
*98 io_out[29]
*99 io_out[2]
*100 io_out[30]
*101 io_out[31]
*102 io_out[32]
*103 io_out[33]
*104 io_out[34]
*105 io_out[35]
*106 io_out[36]
*107 io_out[37]
*108 io_out[3]
*109 io_out[4]
*110 io_out[5]
*111 io_out[6]
*112 io_out[7]
*113 io_out[8]
*114 io_out[9]
*115 la_data_in[0]
*116 la_data_in[10]
*117 la_data_in[11]
*118 la_data_in[12]
*119 la_data_in[13]
*120 la_data_in[14]
*121 la_data_in[15]
*122 la_data_in[16]
*123 la_data_in[17]
*124 la_data_in[18]
*125 la_data_in[19]
*126 la_data_in[1]
*127 la_data_in[20]
*128 la_data_in[21]
*129 la_data_in[22]
*130 la_data_in[23]
*131 la_data_in[24]
*132 la_data_in[25]
*133 la_data_in[26]
*134 la_data_in[27]
*135 la_data_in[28]
*136 la_data_in[29]
*137 la_data_in[2]
*138 la_data_in[30]
*139 la_data_in[31]
*140 la_data_in[32]
*141 la_data_in[33]
*142 la_data_in[34]
*143 la_data_in[35]
*144 la_data_in[36]
*145 la_data_in[37]
*146 la_data_in[38]
*147 la_data_in[39]
*148 la_data_in[3]
*149 la_data_in[40]
*150 la_data_in[41]
*151 la_data_in[42]
*152 la_data_in[43]
*153 la_data_in[44]
*154 la_data_in[45]
*155 la_data_in[46]
*156 la_data_in[47]
*157 la_data_in[48]
*158 la_data_in[49]
*159 la_data_in[4]
*160 la_data_in[50]
*161 la_data_in[51]
*162 la_data_in[52]
*163 la_data_in[53]
*164 la_data_in[54]
*165 la_data_in[55]
*166 la_data_in[56]
*167 la_data_in[57]
*168 la_data_in[58]
*169 la_data_in[59]
*170 la_data_in[5]
*171 la_data_in[60]
*172 la_data_in[61]
*173 la_data_in[62]
*174 la_data_in[63]
*175 la_data_in[6]
*176 la_data_in[7]
*177 la_data_in[8]
*178 la_data_in[9]
*179 la_data_out[0]
*180 la_data_out[10]
*181 la_data_out[11]
*182 la_data_out[12]
*183 la_data_out[13]
*184 la_data_out[14]
*185 la_data_out[15]
*186 la_data_out[16]
*187 la_data_out[17]
*188 la_data_out[18]
*189 la_data_out[19]
*190 la_data_out[1]
*191 la_data_out[20]
*192 la_data_out[21]
*193 la_data_out[22]
*194 la_data_out[23]
*195 la_data_out[24]
*196 la_data_out[25]
*197 la_data_out[26]
*198 la_data_out[27]
*199 la_data_out[28]
*200 la_data_out[29]
*201 la_data_out[2]
*202 la_data_out[30]
*203 la_data_out[31]
*204 la_data_out[32]
*205 la_data_out[33]
*206 la_data_out[34]
*207 la_data_out[35]
*208 la_data_out[36]
*209 la_data_out[37]
*210 la_data_out[38]
*211 la_data_out[39]
*212 la_data_out[3]
*213 la_data_out[40]
*214 la_data_out[41]
*215 la_data_out[42]
*216 la_data_out[43]
*217 la_data_out[44]
*218 la_data_out[45]
*219 la_data_out[46]
*220 la_data_out[47]
*221 la_data_out[48]
*222 la_data_out[49]
*223 la_data_out[4]
*224 la_data_out[50]
*225 la_data_out[51]
*226 la_data_out[52]
*227 la_data_out[53]
*228 la_data_out[54]
*229 la_data_out[55]
*230 la_data_out[56]
*231 la_data_out[57]
*232 la_data_out[58]
*233 la_data_out[59]
*234 la_data_out[5]
*235 la_data_out[60]
*236 la_data_out[61]
*237 la_data_out[62]
*238 la_data_out[63]
*239 la_data_out[6]
*240 la_data_out[7]
*241 la_data_out[8]
*242 la_data_out[9]
*243 la_oenb[0]
*244 la_oenb[10]
*245 la_oenb[11]
*246 la_oenb[12]
*247 la_oenb[13]
*248 la_oenb[14]
*249 la_oenb[15]
*250 la_oenb[16]
*251 la_oenb[17]
*252 la_oenb[18]
*253 la_oenb[19]
*254 la_oenb[1]
*255 la_oenb[20]
*256 la_oenb[21]
*257 la_oenb[22]
*258 la_oenb[23]
*259 la_oenb[24]
*260 la_oenb[25]
*261 la_oenb[26]
*262 la_oenb[27]
*263 la_oenb[28]
*264 la_oenb[29]
*265 la_oenb[2]
*266 la_oenb[30]
*267 la_oenb[31]
*268 la_oenb[32]
*269 la_oenb[33]
*270 la_oenb[34]
*271 la_oenb[35]
*272 la_oenb[36]
*273 la_oenb[37]
*274 la_oenb[38]
*275 la_oenb[39]
*276 la_oenb[3]
*277 la_oenb[40]
*278 la_oenb[41]
*279 la_oenb[42]
*280 la_oenb[43]
*281 la_oenb[44]
*282 la_oenb[45]
*283 la_oenb[46]
*284 la_oenb[47]
*285 la_oenb[48]
*286 la_oenb[49]
*287 la_oenb[4]
*288 la_oenb[50]
*289 la_oenb[51]
*290 la_oenb[52]
*291 la_oenb[53]
*292 la_oenb[54]
*293 la_oenb[55]
*294 la_oenb[56]
*295 la_oenb[57]
*296 la_oenb[58]
*297 la_oenb[59]
*298 la_oenb[5]
*299 la_oenb[60]
*300 la_oenb[61]
*301 la_oenb[62]
*302 la_oenb[63]
*303 la_oenb[6]
*304 la_oenb[7]
*305 la_oenb[8]
*306 la_oenb[9]
*307 user_clock2
*308 user_irq[0]
*309 user_irq[1]
*310 user_irq[2]
*313 wb_clk_i
*314 wb_rst_i
*315 wbs_ack_o
*316 wbs_adr_i[0]
*317 wbs_adr_i[10]
*318 wbs_adr_i[11]
*319 wbs_adr_i[12]
*320 wbs_adr_i[13]
*321 wbs_adr_i[14]
*322 wbs_adr_i[15]
*323 wbs_adr_i[16]
*324 wbs_adr_i[17]
*325 wbs_adr_i[18]
*326 wbs_adr_i[19]
*327 wbs_adr_i[1]
*328 wbs_adr_i[20]
*329 wbs_adr_i[21]
*330 wbs_adr_i[22]
*331 wbs_adr_i[23]
*332 wbs_adr_i[24]
*333 wbs_adr_i[25]
*334 wbs_adr_i[26]
*335 wbs_adr_i[27]
*336 wbs_adr_i[28]
*337 wbs_adr_i[29]
*338 wbs_adr_i[2]
*339 wbs_adr_i[30]
*340 wbs_adr_i[31]
*341 wbs_adr_i[3]
*342 wbs_adr_i[4]
*343 wbs_adr_i[5]
*344 wbs_adr_i[6]
*345 wbs_adr_i[7]
*346 wbs_adr_i[8]
*347 wbs_adr_i[9]
*348 wbs_cyc_i
*349 wbs_dat_i[0]
*350 wbs_dat_i[10]
*351 wbs_dat_i[11]
*352 wbs_dat_i[12]
*353 wbs_dat_i[13]
*354 wbs_dat_i[14]
*355 wbs_dat_i[15]
*356 wbs_dat_i[16]
*357 wbs_dat_i[17]
*358 wbs_dat_i[18]
*359 wbs_dat_i[19]
*360 wbs_dat_i[1]
*361 wbs_dat_i[20]
*362 wbs_dat_i[21]
*363 wbs_dat_i[22]
*364 wbs_dat_i[23]
*365 wbs_dat_i[24]
*366 wbs_dat_i[25]
*367 wbs_dat_i[26]
*368 wbs_dat_i[27]
*369 wbs_dat_i[28]
*370 wbs_dat_i[29]
*371 wbs_dat_i[2]
*372 wbs_dat_i[30]
*373 wbs_dat_i[31]
*374 wbs_dat_i[3]
*375 wbs_dat_i[4]
*376 wbs_dat_i[5]
*377 wbs_dat_i[6]
*378 wbs_dat_i[7]
*379 wbs_dat_i[8]
*380 wbs_dat_i[9]
*381 wbs_dat_o[0]
*382 wbs_dat_o[10]
*383 wbs_dat_o[11]
*384 wbs_dat_o[12]
*385 wbs_dat_o[13]
*386 wbs_dat_o[14]
*387 wbs_dat_o[15]
*388 wbs_dat_o[16]
*389 wbs_dat_o[17]
*390 wbs_dat_o[18]
*391 wbs_dat_o[19]
*392 wbs_dat_o[1]
*393 wbs_dat_o[20]
*394 wbs_dat_o[21]
*395 wbs_dat_o[22]
*396 wbs_dat_o[23]
*397 wbs_dat_o[24]
*398 wbs_dat_o[25]
*399 wbs_dat_o[26]
*400 wbs_dat_o[27]
*401 wbs_dat_o[28]
*402 wbs_dat_o[29]
*403 wbs_dat_o[2]
*404 wbs_dat_o[30]
*405 wbs_dat_o[31]
*406 wbs_dat_o[3]
*407 wbs_dat_o[4]
*408 wbs_dat_o[5]
*409 wbs_dat_o[6]
*410 wbs_dat_o[7]
*411 wbs_dat_o[8]
*412 wbs_dat_o[9]
*413 wbs_sel_i[0]
*414 wbs_sel_i[1]
*415 wbs_sel_i[2]
*416 wbs_sel_i[3]
*417 wbs_stb_i
*418 wbs_we_i
*419 mprj

*PORTS
io_in[0] I
io_in[10] I
io_in[11] I
io_in[12] I
io_in[13] I
io_in[14] I
io_in[15] I
io_in[16] I
io_in[17] I
io_in[18] I
io_in[19] I
io_in[1] I
io_in[20] I
io_in[21] I
io_in[22] I
io_in[23] I
io_in[24] I
io_in[25] I
io_in[26] I
io_in[27] I
io_in[28] I
io_in[29] I
io_in[2] I
io_in[30] I
io_in[31] I
io_in[32] I
io_in[33] I
io_in[34] I
io_in[35] I
io_in[36] I
io_in[37] I
io_in[3] I
io_in[4] I
io_in[5] I
io_in[6] I
io_in[7] I
io_in[8] I
io_in[9] I
io_oeb[0] O
io_oeb[10] O
io_oeb[11] O
io_oeb[12] O
io_oeb[13] O
io_oeb[14] O
io_oeb[15] O
io_oeb[16] O
io_oeb[17] O
io_oeb[18] O
io_oeb[19] O
io_oeb[1] O
io_oeb[20] O
io_oeb[21] O
io_oeb[22] O
io_oeb[23] O
io_oeb[24] O
io_oeb[25] O
io_oeb[26] O
io_oeb[27] O
io_oeb[28] O
io_oeb[29] O
io_oeb[2] O
io_oeb[30] O
io_oeb[31] O
io_oeb[32] O
io_oeb[33] O
io_oeb[34] O
io_oeb[35] O
io_oeb[36] O
io_oeb[37] O
io_oeb[3] O
io_oeb[4] O
io_oeb[5] O
io_oeb[6] O
io_oeb[7] O
io_oeb[8] O
io_oeb[9] O
io_out[0] O
io_out[10] O
io_out[11] O
io_out[12] O
io_out[13] O
io_out[14] O
io_out[15] O
io_out[16] O
io_out[17] O
io_out[18] O
io_out[19] O
io_out[1] O
io_out[20] O
io_out[21] O
io_out[22] O
io_out[23] O
io_out[24] O
io_out[25] O
io_out[26] O
io_out[27] O
io_out[28] O
io_out[29] O
io_out[2] O
io_out[30] O
io_out[31] O
io_out[32] O
io_out[33] O
io_out[34] O
io_out[35] O
io_out[36] O
io_out[37] O
io_out[3] O
io_out[4] O
io_out[5] O
io_out[6] O
io_out[7] O
io_out[8] O
io_out[9] O
la_data_in[0] I
la_data_in[10] I
la_data_in[11] I
la_data_in[12] I
la_data_in[13] I
la_data_in[14] I
la_data_in[15] I
la_data_in[16] I
la_data_in[17] I
la_data_in[18] I
la_data_in[19] I
la_data_in[1] I
la_data_in[20] I
la_data_in[21] I
la_data_in[22] I
la_data_in[23] I
la_data_in[24] I
la_data_in[25] I
la_data_in[26] I
la_data_in[27] I
la_data_in[28] I
la_data_in[29] I
la_data_in[2] I
la_data_in[30] I
la_data_in[31] I
la_data_in[32] I
la_data_in[33] I
la_data_in[34] I
la_data_in[35] I
la_data_in[36] I
la_data_in[37] I
la_data_in[38] I
la_data_in[39] I
la_data_in[3] I
la_data_in[40] I
la_data_in[41] I
la_data_in[42] I
la_data_in[43] I
la_data_in[44] I
la_data_in[45] I
la_data_in[46] I
la_data_in[47] I
la_data_in[48] I
la_data_in[49] I
la_data_in[4] I
la_data_in[50] I
la_data_in[51] I
la_data_in[52] I
la_data_in[53] I
la_data_in[54] I
la_data_in[55] I
la_data_in[56] I
la_data_in[57] I
la_data_in[58] I
la_data_in[59] I
la_data_in[5] I
la_data_in[60] I
la_data_in[61] I
la_data_in[62] I
la_data_in[63] I
la_data_in[6] I
la_data_in[7] I
la_data_in[8] I
la_data_in[9] I
la_data_out[0] O
la_data_out[10] O
la_data_out[11] O
la_data_out[12] O
la_data_out[13] O
la_data_out[14] O
la_data_out[15] O
la_data_out[16] O
la_data_out[17] O
la_data_out[18] O
la_data_out[19] O
la_data_out[1] O
la_data_out[20] O
la_data_out[21] O
la_data_out[22] O
la_data_out[23] O
la_data_out[24] O
la_data_out[25] O
la_data_out[26] O
la_data_out[27] O
la_data_out[28] O
la_data_out[29] O
la_data_out[2] O
la_data_out[30] O
la_data_out[31] O
la_data_out[32] O
la_data_out[33] O
la_data_out[34] O
la_data_out[35] O
la_data_out[36] O
la_data_out[37] O
la_data_out[38] O
la_data_out[39] O
la_data_out[3] O
la_data_out[40] O
la_data_out[41] O
la_data_out[42] O
la_data_out[43] O
la_data_out[44] O
la_data_out[45] O
la_data_out[46] O
la_data_out[47] O
la_data_out[48] O
la_data_out[49] O
la_data_out[4] O
la_data_out[50] O
la_data_out[51] O
la_data_out[52] O
la_data_out[53] O
la_data_out[54] O
la_data_out[55] O
la_data_out[56] O
la_data_out[57] O
la_data_out[58] O
la_data_out[59] O
la_data_out[5] O
la_data_out[60] O
la_data_out[61] O
la_data_out[62] O
la_data_out[63] O
la_data_out[6] O
la_data_out[7] O
la_data_out[8] O
la_data_out[9] O
la_oenb[0] I
la_oenb[10] I
la_oenb[11] I
la_oenb[12] I
la_oenb[13] I
la_oenb[14] I
la_oenb[15] I
la_oenb[16] I
la_oenb[17] I
la_oenb[18] I
la_oenb[19] I
la_oenb[1] I
la_oenb[20] I
la_oenb[21] I
la_oenb[22] I
la_oenb[23] I
la_oenb[24] I
la_oenb[25] I
la_oenb[26] I
la_oenb[27] I
la_oenb[28] I
la_oenb[29] I
la_oenb[2] I
la_oenb[30] I
la_oenb[31] I
la_oenb[32] I
la_oenb[33] I
la_oenb[34] I
la_oenb[35] I
la_oenb[36] I
la_oenb[37] I
la_oenb[38] I
la_oenb[39] I
la_oenb[3] I
la_oenb[40] I
la_oenb[41] I
la_oenb[42] I
la_oenb[43] I
la_oenb[44] I
la_oenb[45] I
la_oenb[46] I
la_oenb[47] I
la_oenb[48] I
la_oenb[49] I
la_oenb[4] I
la_oenb[50] I
la_oenb[51] I
la_oenb[52] I
la_oenb[53] I
la_oenb[54] I
la_oenb[55] I
la_oenb[56] I
la_oenb[57] I
la_oenb[58] I
la_oenb[59] I
la_oenb[5] I
la_oenb[60] I
la_oenb[61] I
la_oenb[62] I
la_oenb[63] I
la_oenb[6] I
la_oenb[7] I
la_oenb[8] I
la_oenb[9] I
user_clock2 I
user_irq[0] O
user_irq[1] O
user_irq[2] O
wb_clk_i I
wb_rst_i I
wbs_ack_o O
wbs_adr_i[0] I
wbs_adr_i[10] I
wbs_adr_i[11] I
wbs_adr_i[12] I
wbs_adr_i[13] I
wbs_adr_i[14] I
wbs_adr_i[15] I
wbs_adr_i[16] I
wbs_adr_i[17] I
wbs_adr_i[18] I
wbs_adr_i[19] I
wbs_adr_i[1] I
wbs_adr_i[20] I
wbs_adr_i[21] I
wbs_adr_i[22] I
wbs_adr_i[23] I
wbs_adr_i[24] I
wbs_adr_i[25] I
wbs_adr_i[26] I
wbs_adr_i[27] I
wbs_adr_i[28] I
wbs_adr_i[29] I
wbs_adr_i[2] I
wbs_adr_i[30] I
wbs_adr_i[31] I
wbs_adr_i[3] I
wbs_adr_i[4] I
wbs_adr_i[5] I
wbs_adr_i[6] I
wbs_adr_i[7] I
wbs_adr_i[8] I
wbs_adr_i[9] I
wbs_cyc_i I
wbs_dat_i[0] I
wbs_dat_i[10] I
wbs_dat_i[11] I
wbs_dat_i[12] I
wbs_dat_i[13] I
wbs_dat_i[14] I
wbs_dat_i[15] I
wbs_dat_i[16] I
wbs_dat_i[17] I
wbs_dat_i[18] I
wbs_dat_i[19] I
wbs_dat_i[1] I
wbs_dat_i[20] I
wbs_dat_i[21] I
wbs_dat_i[22] I
wbs_dat_i[23] I
wbs_dat_i[24] I
wbs_dat_i[25] I
wbs_dat_i[26] I
wbs_dat_i[27] I
wbs_dat_i[28] I
wbs_dat_i[29] I
wbs_dat_i[2] I
wbs_dat_i[30] I
wbs_dat_i[31] I
wbs_dat_i[3] I
wbs_dat_i[4] I
wbs_dat_i[5] I
wbs_dat_i[6] I
wbs_dat_i[7] I
wbs_dat_i[8] I
wbs_dat_i[9] I
wbs_dat_o[0] O
wbs_dat_o[10] O
wbs_dat_o[11] O
wbs_dat_o[12] O
wbs_dat_o[13] O
wbs_dat_o[14] O
wbs_dat_o[15] O
wbs_dat_o[16] O
wbs_dat_o[17] O
wbs_dat_o[18] O
wbs_dat_o[19] O
wbs_dat_o[1] O
wbs_dat_o[20] O
wbs_dat_o[21] O
wbs_dat_o[22] O
wbs_dat_o[23] O
wbs_dat_o[24] O
wbs_dat_o[25] O
wbs_dat_o[26] O
wbs_dat_o[27] O
wbs_dat_o[28] O
wbs_dat_o[29] O
wbs_dat_o[2] O
wbs_dat_o[30] O
wbs_dat_o[31] O
wbs_dat_o[3] O
wbs_dat_o[4] O
wbs_dat_o[5] O
wbs_dat_o[6] O
wbs_dat_o[7] O
wbs_dat_o[8] O
wbs_dat_o[9] O
wbs_sel_i[0] I
wbs_sel_i[1] I
wbs_sel_i[2] I
wbs_sel_i[3] I
wbs_stb_i I
wbs_we_i I

*D_NET *1 0.0978588
*CONN
*P io_in[0] I
*I *419:io_in[0] I *D user_proj_example
*CAP
1 io_in[0] 0.0267564
2 *419:io_in[0] 0.00543175
3 *1:5 0.0321881
4 *419:io_in[0] *77:11 0.00180588
5 *1:5 *156:9 0
6 *1:5 *158:9 0
7 *1:5 *160:9 0
8 *1:5 *172:9 0.019918
9 *1:5 *173:15 0.00995536
10 *1:5 *210:9 0.00114773
11 *1:5 *228:9 0
12 *1:5 *277:9 0.000655638
*RES
1 io_in[0] *1:5 278.325 
2 *1:5 *419:io_in[0] 48.915 
*END

*D_NET *12 0.101791
*CONN
*P io_in[1] I
*I *419:io_in[1] I *D user_proj_example
*CAP
1 io_in[1] 0.0347143
2 *419:io_in[1] 0.00055292
3 *12:9 0.00297138
4 *12:7 0.00241845
5 *12:5 0.0347143
6 *12:5 *77:7 0
7 *12:9 *39:9 0.0102467
8 *12:9 *50:9 0.00379364
9 *12:9 *88:9 0.0123789
*RES
1 io_in[1] *12:5 278.145 
2 *12:5 *12:7 4.5 
3 *12:7 *12:9 51.93 
4 *12:9 *419:io_in[1] 8.865 
*END

*D_NET *23 0.123841
*CONN
*P io_in[2] I
*I *419:io_in[2] I *D user_proj_example
*CAP
1 io_in[2] 0.0347121
2 *419:io_in[2] 0.00055292
3 *23:9 0.00116597
4 *23:7 0.000613046
5 *23:5 0.0347121
6 *23:9 *50:9 0.0167595
7 *23:9 *61:9 0.0103982
8 *23:9 *88:9 0.0060001
9 *23:9 *99:9 0.0189267
*RES
1 io_in[2] *23:5 278.145 
2 *23:5 *23:7 4.5 
3 *23:7 *23:9 68.13 
4 *23:9 *419:io_in[2] 8.865 
*END

*D_NET *24 0.0586891
*CONN
*P io_in[30] I
*I *419:io_in[8] I *D user_proj_example
*CAP
1 io_in[30] 0.000751787
2 *419:io_in[8] 0.00330236
3 *24:9 0.014297
4 *24:7 0.0117464
5 *24:9 *62:9 0.0285916
*RES
1 io_in[30] *24:7 10.665 
2 *24:7 *24:9 124.11 
3 *24:9 *419:io_in[8] 30.105 
*END

*D_NET *25 0.0640619
*CONN
*P io_in[31] I
*I *419:io_in[9] I *D user_proj_example
*CAP
1 io_in[31] 0.000828799
2 *419:io_in[9] 0.00327611
3 *25:9 0.0103854
4 *25:7 0.00793812
5 *25:9 *26:9 0.00323331
6 *25:9 *62:9 0.0361593
7 *25:9 *102:9 0.00224086
*RES
1 io_in[31] *25:7 11.025 
2 *25:7 *25:9 112.23 
3 *25:9 *419:io_in[9] 29.745 
*END

*D_NET *26 0.057902
*CONN
*P io_in[32] I
*I *419:io_in[10] I *D user_proj_example
*CAP
1 io_in[32] 0.000751787
2 *419:io_in[10] 0.00337003
3 *26:9 0.0097401
4 *26:7 0.00712186
5 *26:9 *62:9 0.00385893
6 *26:9 *102:9 0.029826
7 *25:9 *26:9 0.00323331
*RES
1 io_in[32] *26:7 10.665 
2 *26:7 *26:9 100.53 
3 *26:9 *419:io_in[10] 30.105 
*END

*D_NET *27 0.049675
*CONN
*P io_in[33] I
*I *419:io_in[11] I *D user_proj_example
*CAP
1 io_in[33] 0.000850363
2 *419:io_in[11] 0.00323762
3 *27:9 0.00897592
4 *27:7 0.00658866
5 *27:9 *28:9 0.00156886
6 *27:9 *64:9 0.0265923
7 *27:9 *65:9 0.00186129
*RES
1 io_in[33] *27:7 11.205 
2 *27:7 *27:9 88.47 
3 *27:9 *419:io_in[11] 29.565 
*END

*D_NET *28 0.0571218
*CONN
*P io_in[34] I
*I *419:io_in[12] I *D user_proj_example
*CAP
1 io_in[34] 0.000773366
2 *419:io_in[12] 0.0033146
3 *28:9 0.00603958
4 *28:7 0.00349834
5 *28:9 *65:9 0.0218038
6 *28:9 *104:9 0.0201232
7 *27:9 *28:9 0.00156886
*RES
1 io_in[34] *28:7 10.845 
2 *28:7 *28:9 76.59 
3 *28:9 *419:io_in[12] 29.925 
*END

*D_NET *29 0.036554
*CONN
*P io_in[35] I
*I *419:io_in[13] I *D user_proj_example
*CAP
1 io_in[35] 0.000751787
2 *419:io_in[13] 0.00333619
3 *29:9 0.00752497
4 *29:7 0.00494056
5 *29:9 *66:9 0.000919762
6 *29:9 *104:9 0.00367544
7 *29:9 *105:9 0.0154053
*RES
1 io_in[35] *29:7 10.665 
2 *29:7 *29:9 64.71 
3 *29:9 *419:io_in[13] 30.105 
*END

*D_NET *30 0.027315
*CONN
*P io_in[36] I
*I *419:io_in[14] I *D user_proj_example
*CAP
1 io_in[36] 0.00222904
2 *419:io_in[14] 0.000619134
3 *30:9 0.00715327
4 *30:7 0.00876318
5 *30:7 *68:7 0.00855039
*RES
1 io_in[36] *30:7 32.265 
2 *30:7 *30:9 53.19 
3 *30:9 *419:io_in[14] 8.505 
*END

*D_NET *31 0.0235009
*CONN
*P io_in[37] I
*I *419:io_in[15] I *D user_proj_example
*CAP
1 io_in[37] 0.000751787
2 *419:io_in[15] 0.00331928
3 *31:11 0.00730401
4 *31:7 0.00473651
5 *31:11 *68:11 0.00738927
*RES
1 io_in[37] *31:7 10.665 
2 *31:7 *31:11 45.63 
3 *31:11 *419:io_in[15] 25.605 
*END

*D_NET *32 0.0990622
*CONN
*P io_in[3] I
*I *419:io_in[3] I *D user_proj_example
*CAP
1 io_in[3] 0.0346088
2 *419:io_in[3] 0.000661871
3 *32:9 0.0067178
4 *32:7 0.00605593
5 *32:5 0.0346088
6 *419:io_in[3] io_out[4] 2.40389e-05
7 *32:9 *33:9 0.00827116
8 *32:9 *61:9 0.00751924
9 *32:9 *108:9 0.00059453
*RES
1 io_in[3] *32:5 277.425 
2 *32:5 *32:7 4.5 
3 *32:7 *32:9 84.33 
4 *32:9 *419:io_in[3] 9.585 
*END

*D_NET *33 0.124397
*CONN
*P io_in[4] I
*I *419:io_in[4] I *D user_proj_example
*CAP
1 io_in[4] 0.0346473
2 *419:io_in[4] 0.000668439
3 *33:9 0.00607939
4 *33:7 0.00541095
5 *33:5 0.0346473
6 *33:9 *108:9 0.00272511
7 *33:9 *109:9 0.0319477
8 *32:9 *33:9 0.00827116
*RES
1 io_in[4] *33:5 277.605 
2 *33:5 *33:7 4.5 
3 *33:7 *33:9 100.53 
4 *33:9 *419:io_in[4] 9.405 
*END

*D_NET *34 0.155975
*CONN
*P io_in[5] I
*I *419:io_in[5] I *D user_proj_example
*CAP
1 io_in[5] 0.0347459
2 *419:io_in[5] 0.00055292
3 *34:9 0.00172783
4 *34:7 0.00117491
5 *34:5 0.0347459
6 *34:9 *70:9 0.00407299
7 *34:9 *71:9 0.0363606
8 *34:9 *73:9 0.00197998
9 *34:9 *110:9 0.0385077
10 *34:9 *111:9 0.00210653
*RES
1 io_in[5] *34:5 278.145 
2 *34:5 *34:7 4.5 
3 *34:7 *34:9 116.73 
4 *34:9 *419:io_in[5] 8.865 
*END

*D_NET *35 0.16563
*CONN
*P io_in[6] I
*I *419:io_in[6] I *D user_proj_example
*CAP
1 io_in[6] 0.0346258
2 *419:io_in[6] 0.000706945
3 *35:9 0.00284569
4 *35:7 0.00213874
5 *35:5 0.0346258
6 *35:9 *71:9 0.00282878
7 *35:9 *72:11 0.0427652
8 *35:9 *111:9 0.0450929
*RES
1 io_in[6] *35:5 277.425 
2 *35:5 *35:7 4.5 
3 *35:7 *35:9 132.93 
4 *35:9 *419:io_in[6] 9.585 
*END

*D_NET *36 0.179473
*CONN
*P io_in[7] I
*I *419:io_in[7] I *D user_proj_example
*CAP
1 io_in[7] 0.0347413
2 *419:io_in[7] 0.000591426
3 *36:9 0.00296164
4 *36:7 0.00237022
5 *36:5 0.0347413
6 *36:9 *73:9 0.0494464
7 *36:9 *110:9 0.00303327
8 *36:9 *112:9 0.0515876
*RES
1 io_in[7] *36:5 277.965 
2 *36:5 *36:7 4.5 
3 *36:7 *36:9 149.13 
4 *36:9 *419:io_in[7] 9.045 
*END

*D_NET *39 0.0948353
*CONN
*P io_oeb[0] O
*I *419:io_oeb[0] O *D user_proj_example
*CAP
1 io_oeb[0] 0.0346905
2 *419:io_oeb[0] 0.000591426
3 *39:11 0.0346905
4 *39:9 0.00302963
5 *39:7 0.00362106
6 *39:9 *77:11 0.00796552
7 *12:9 *39:9 0.0102467
*RES
1 *419:io_oeb[0] *39:7 9.045 
2 *39:7 *39:9 46.35 
3 *39:9 *39:11 4.5 
4 *39:11 io_oeb[0] 277.965 
*END

*D_NET *50 0.101569
*CONN
*P io_oeb[1] O
*I *419:io_oeb[1] O *D user_proj_example
*CAP
1 io_oeb[1] 0.0346736
2 *419:io_oeb[1] 0.000723172
3 *50:11 0.0346736
4 *50:9 0.00400327
5 *50:7 0.00472645
6 *50:7 io_oeb[2] 8.65553e-07
7 *50:9 *88:9 0.00221514
8 *12:9 *50:9 0.00379364
9 *23:9 *50:9 0.0167595
*RES
1 *419:io_oeb[1] *50:7 9.045 
2 *50:7 *50:9 62.73 
3 *50:9 *50:11 4.5 
4 *50:11 io_oeb[1] 277.965 
*END

*D_NET *61 0.110642
*CONN
*P io_oeb[2] O
*I *419:io_oeb[2] O *D user_proj_example
*CAP
1 io_oeb[2] 0.0346731
2 *419:io_oeb[2] 0.000591426
3 *61:11 0.0346731
4 *61:9 0.00216461
5 *61:7 0.00275604
6 *61:9 *99:9 0.00313286
7 *61:9 *108:9 0.0147324
8 *23:9 *61:9 0.0103982
9 *32:9 *61:9 0.00751924
10 *50:7 io_oeb[2] 8.65553e-07
*RES
1 *419:io_oeb[2] *61:7 9.045 
2 *61:7 *61:9 78.93 
3 *61:9 *61:11 4.5 
4 *61:11 io_oeb[2] 277.965 
*END

*D_NET *62 0.0848885
*CONN
*P io_oeb[30] O
*I *419:io_oeb[8] O *D user_proj_example
*CAP
1 io_oeb[30] 0.000790293
2 *419:io_oeb[8] 0.00329769
3 *62:9 0.00484162
4 *62:7 0.00734902
5 *24:9 *62:9 0.0285916
6 *25:9 *62:9 0.0361593
7 *26:9 *62:9 0.00385893
*RES
1 *419:io_oeb[8] *62:7 29.925 
2 *62:7 *62:9 116.19 
3 *62:9 io_oeb[30] 10.845 
*END

*D_NET *63 0.0353417
*CONN
*P io_oeb[31] O
*I *419:io_oeb[9] O *D user_proj_example
*CAP
1 io_oeb[31] 0.00441989
2 *419:io_oeb[9] 0.00049282
3 *63:9 0.017178
4 *63:7 0.013251
*RES
1 *419:io_oeb[9] *63:7 8.505 
2 *63:7 *63:9 104.67 
3 *63:9 io_oeb[31] 32.265 
*END

*D_NET *64 0.0706945
*CONN
*P io_oeb[32] O
*I *419:io_oeb[10] O *D user_proj_example
*CAP
1 io_oeb[32] 0.00101454
2 *419:io_oeb[10] 0.00329302
3 *64:9 0.00351669
4 *64:7 0.00579517
5 *64:7 io_out[31] 0
6 *64:9 *65:9 0.00233737
7 *64:9 *102:9 0.0281454
8 *27:9 *64:9 0.0265923
*RES
1 *419:io_oeb[10] *64:7 29.745 
2 *64:7 *64:9 92.43 
3 *64:9 io_oeb[32] 11.025 
*END

*D_NET *65 0.0448137
*CONN
*P io_oeb[33] O
*I *419:io_oeb[11] O *D user_proj_example
*CAP
1 io_oeb[33] 0.000751787
2 *419:io_oeb[11] 0.00335311
3 *65:9 0.00605249
4 *65:7 0.00865381
5 *27:9 *65:9 0.00186129
6 *28:9 *65:9 0.0218038
7 *64:9 *65:9 0.00233737
*RES
1 *419:io_oeb[11] *65:7 30.105 
2 *65:7 *65:9 80.73 
3 *65:9 io_oeb[33] 10.665 
*END

*D_NET *66 0.0399396
*CONN
*P io_oeb[34] O
*I *419:io_oeb[12] O *D user_proj_example
*CAP
1 io_oeb[34] 0.00105304
2 *419:io_oeb[12] 0.00323762
3 *66:9 0.00553527
4 *66:7 0.00771985
5 *66:9 *104:9 0.0185645
6 *66:9 *105:9 0.00290948
7 *29:9 *66:9 0.000919762
*RES
1 *419:io_oeb[12] *66:7 29.565 
2 *66:7 *66:9 68.67 
3 *66:9 io_oeb[34] 11.205 
*END

*D_NET *67 0.0321082
*CONN
*P io_oeb[35] O
*I *419:io_oeb[13] O *D user_proj_example
*CAP
1 io_oeb[35] 0.000811857
2 *419:io_oeb[13] 0.0032592
3 *67:9 0.00555929
4 *67:7 0.00800663
5 *67:9 *105:9 0.0138691
6 *67:9 *106:9 0.000602126
*RES
1 *419:io_oeb[13] *67:7 29.745 
2 *67:7 *67:9 56.79 
3 *67:9 io_oeb[35] 11.025 
*END

*D_NET *68 0.0366136
*CONN
*P io_oeb[36] O
*I *419:io_oeb[14] O *D user_proj_example
*CAP
1 io_oeb[36] 0.000790293
2 *419:io_oeb[14] 0.00193159
3 *68:11 0.00389758
4 *68:7 0.00503888
5 *68:11 *106:9 0.00901561
6 *30:7 *68:7 0.00855039
7 *31:11 *68:11 0.00738927
*RES
1 *419:io_oeb[14] *68:7 29.925 
2 *68:7 *68:11 49.41 
3 *68:11 io_oeb[36] 6.345 
*END

*D_NET *69 0.0164591
*CONN
*P io_oeb[37] O
*I *419:io_oeb[15] O *D user_proj_example
*CAP
1 io_oeb[37] 0.00491027
2 *419:io_oeb[15] 0.00331927
3 *69:7 0.00822954
*RES
1 *419:io_oeb[15] *69:7 30.105 
2 *69:7 io_oeb[37] 43.695 
*END

*D_NET *70 0.117495
*CONN
*P io_oeb[3] O
*I *419:io_oeb[3] O *D user_proj_example
*CAP
1 io_oeb[3] 0.0347675
2 *419:io_oeb[3] 0.000514414
3 *70:11 0.0347675
4 *70:9 0.00605416
5 *70:7 0.00656858
6 *70:9 *71:9 0.00314434
7 *70:9 *108:9 0.0276052
8 *34:9 *70:9 0.00407299
*RES
1 *419:io_oeb[3] *70:7 8.685 
2 *70:7 *70:9 95.13 
3 *70:9 *70:11 4.5 
4 *70:11 io_oeb[3] 278.325 
*END

*D_NET *71 0.151091
*CONN
*P io_oeb[4] O
*I *419:io_oeb[4] O *D user_proj_example
*CAP
1 io_oeb[4] 0.0347074
2 *419:io_oeb[4] 0.000591426
3 *71:11 0.0347074
4 *71:9 0.000524099
5 *71:7 0.00111553
6 *71:9 *72:11 2.44552e-05
7 *71:9 *108:9 0.00194077
8 *71:9 *109:9 0.0341542
9 *71:9 *111:9 0.000992044
10 *34:9 *71:9 0.0363606
11 *35:9 *71:9 0.00282878
12 *70:9 *71:9 0.00314434
*RES
1 *419:io_oeb[4] *71:7 9.045 
2 *71:7 *71:9 111.33 
3 *71:9 *71:11 4.5 
4 *71:11 io_oeb[4] 277.965 
*END

*D_NET *72 0.132748
*CONN
*P io_oeb[5] O
*I *419:io_oeb[5] O *D user_proj_example
*CAP
1 io_oeb[5] 0.0345873
2 *419:io_oeb[5] 0.00072109
3 *72:13 0.0345873
4 *72:11 0.00826146
5 *72:9 0.00898255
6 *72:9 io_oeb[7] 0.000152168
7 *72:11 *109:9 0.00266665
8 *35:9 *72:11 0.0427652
9 *71:9 *72:11 2.44552e-05
*RES
1 *419:io_oeb[5] *72:9 10.215 
2 *72:9 *72:11 126.99 
3 *72:11 *72:13 4.5 
4 *72:13 io_oeb[5] 277.245 
*END

*D_NET *73 0.17508
*CONN
*P io_oeb[6] O
*I *419:io_oeb[6] O *D user_proj_example
*CAP
1 io_oeb[6] 0.0347028
2 *419:io_oeb[6] 0.000629933
3 *73:11 0.0347028
4 *73:9 0.00218967
5 *73:7 0.0028196
6 *73:9 *110:9 0.00136874
7 *73:9 *111:9 0.04724
8 *34:9 *73:9 0.00197998
9 *36:9 *73:9 0.0494464
*RES
1 *419:io_oeb[6] *73:7 9.225 
2 *73:7 *73:9 143.73 
3 *73:9 *73:11 4.5 
4 *73:11 io_oeb[6] 277.785 
*END

*D_NET *74 0.14778
*CONN
*P io_oeb[7] O
*I *419:io_oeb[7] O *D user_proj_example
*CAP
1 io_oeb[7] 0.03474
2 *419:io_oeb[7] 0.000514414
3 *74:11 0.03474
4 *74:9 0.0116626
5 *74:7 0.012177
6 *74:9 *112:9 0.0537934
7 *72:9 io_oeb[7] 0.000152168
*RES
1 *419:io_oeb[7] *74:7 8.685 
2 *74:7 *74:9 159.93 
3 *74:9 *74:11 4.5 
4 *74:11 io_oeb[7] 278.325 
*END

*D_NET *77 0.149026
*CONN
*P io_out[0] O
*I *419:io_out[0] O *D user_proj_example
*CAP
1 io_out[0] 0.0209744
2 *419:io_out[0] 0.000740013
3 *77:11 0.0241942
4 *77:7 0.00395974
5 io_out[0] *236:6 0.00795738
6 io_out[0] *294:9 0.0736214
7 io_out[0] *299:19 0.00780768
8 *419:io_in[0] *77:11 0.00180588
9 *12:5 *77:7 0
10 *39:9 *77:11 0.00796552
*RES
1 *419:io_out[0] *77:7 9.225 
2 *77:7 *77:11 45.63 
3 *77:11 io_out[0] 277.785 
*END

*D_NET *88 0.0984436
*CONN
*P io_out[1] O
*I *419:io_out[1] O *D user_proj_example
*CAP
1 io_out[1] 0.0347506
2 *419:io_out[1] 0.000514414
3 *88:11 0.0347506
4 *88:9 0.00365973
5 *88:7 0.00417414
6 *12:9 *88:9 0.0123789
7 *23:9 *88:9 0.0060001
8 *50:9 *88:9 0.00221514
*RES
1 *419:io_out[1] *88:7 8.685 
2 *88:7 *88:9 57.33 
3 *88:9 *88:11 4.5 
4 *88:11 io_out[1] 278.325 
*END

*D_NET *99 0.105982
*CONN
*P io_out[2] O
*I *419:io_out[2] O *D user_proj_example
*CAP
1 io_out[2] 0.0347506
2 *419:io_out[2] 0.000514414
3 *99:11 0.0347506
4 *99:9 0.00469621
5 *99:7 0.00521062
6 *99:9 *108:9 0.00400014
7 *23:9 *99:9 0.0189267
8 *61:9 *99:9 0.00313286
*RES
1 *419:io_out[2] *99:7 8.685 
2 *99:7 *99:9 73.53 
3 *99:9 *99:11 4.5 
4 *99:11 io_out[2] 278.325 
*END

*D_NET *100 0.0376495
*CONN
*P io_out[30] O
*I *419:io_out[8] O *D user_proj_example
*CAP
1 io_out[30] 0.00153455
2 *419:io_out[8] 0.00255343
3 *100:9 0.0162713
4 *100:7 0.0172902
*RES
1 *419:io_out[8] *100:7 24.705 
2 *100:7 *100:9 120.33 
3 *100:9 io_out[30] 16.065 
*END

*D_NET *101 0.0347611
*CONN
*P io_out[31] O
*I *419:io_out[9] O *D user_proj_example
*CAP
1 io_out[31] 0.00231733
2 *419:io_out[9] 0.00178758
3 *101:9 0.015593
4 *101:7 0.0150632
5 *64:7 io_out[31] 0
*RES
1 *419:io_out[9] *101:7 19.305 
2 *101:7 *101:9 108.27 
3 *101:9 io_out[31] 21.465 
*END

*D_NET *102 0.0742097
*CONN
*P io_out[32] O
*I *419:io_out[10] O *D user_proj_example
*CAP
1 io_out[32] 0.000773366
2 *419:io_out[10] 0.00333153
3 *102:9 0.00366716
4 *102:7 0.00622532
5 *25:9 *102:9 0.00224086
6 *26:9 *102:9 0.029826
7 *64:9 *102:9 0.0281454
*RES
1 *419:io_out[10] *102:7 29.925 
2 *102:7 *102:9 96.39 
3 *102:9 io_out[32] 10.845 
*END

*D_NET *103 0.0291372
*CONN
*P io_out[33] O
*I *419:io_out[11] O *D user_proj_example
*CAP
1 io_out[33] 0.00361209
2 *419:io_out[11] 0.00049282
3 *103:9 0.0140758
4 *103:7 0.0109565
*RES
1 *419:io_out[11] *103:7 8.505 
2 *103:7 *103:9 84.87 
3 *103:9 io_out[33] 32.265 
*END

*D_NET *104 0.0546577
*CONN
*P io_out[34] O
*I *419:io_out[12] O *D user_proj_example
*CAP
1 io_out[34] 0.000811857
2 *419:io_out[12] 0.00327611
3 *104:9 0.00287112
4 *104:7 0.00533538
5 *28:9 *104:9 0.0201232
6 *29:9 *104:9 0.00367544
7 *66:9 *104:9 0.0185645
*RES
1 *419:io_out[12] *104:7 29.745 
2 *104:7 *104:9 72.63 
3 *104:9 io_out[34] 11.025 
*END

*D_NET *105 0.0448672
*CONN
*P io_out[35] O
*I *419:io_out[13] O *D user_proj_example
*CAP
1 io_out[35] 0.000773366
2 *419:io_out[13] 0.00329769
3 *105:9 0.00304393
4 *105:7 0.00556826
5 *29:9 *105:9 0.0154053
6 *66:9 *105:9 0.00290948
7 *67:9 *105:9 0.0138691
*RES
1 *419:io_out[13] *105:7 29.925 
2 *105:7 *105:9 60.93 
3 *105:9 io_out[35] 10.845 
*END

*D_NET *106 0.0267423
*CONN
*P io_out[36] O
*I *419:io_out[14] O *D user_proj_example
*CAP
1 io_out[36] 0.000751787
2 *419:io_out[14] 0.00333618
3 *106:9 0.0052261
4 *106:7 0.00781049
5 *67:9 *106:9 0.000602126
6 *68:11 *106:9 0.00901561
*RES
1 *419:io_out[14] *106:7 30.105 
2 *106:7 *106:9 48.87 
3 *106:9 io_out[36] 10.665 
*END

*D_NET *107 0.0175321
*CONN
*P io_out[37] O
*I *419:io_out[15] O *D user_proj_example
*CAP
1 io_out[37] 0.00357823
2 *419:io_out[15] 0.00518782
3 *107:9 0.00876606
*RES
1 *419:io_out[15] *107:9 45.855 
2 *107:9 io_out[37] 32.265 
*END

*D_NET *108 0.128903
*CONN
*P io_out[3] O
*I *419:io_out[3] O *D user_proj_example
*CAP
1 io_out[3] 0.034729
2 *419:io_out[3] 0.00055292
3 *108:11 0.034729
4 *108:9 0.00137237
5 *108:7 0.00192529
6 *108:9 *109:9 0.0039959
7 *32:9 *108:9 0.00059453
8 *33:9 *108:9 0.00272511
9 *61:9 *108:9 0.0147324
10 *70:9 *108:9 0.0276052
11 *71:9 *108:9 0.00194077
12 *99:9 *108:9 0.00400014
*RES
1 *419:io_out[3] *108:7 8.865 
2 *108:7 *108:9 89.73 
3 *108:9 *108:11 4.5 
4 *108:11 io_out[3] 278.145 
*END

*D_NET *109 0.145329
*CONN
*P io_out[4] O
*I *419:io_out[4] O *D user_proj_example
*CAP
1 io_out[4] 0.0346577
2 *419:io_out[4] 0.000629933
3 *109:11 0.0346577
4 *109:9 0.000982726
5 *109:7 0.00161266
6 *419:io_in[3] io_out[4] 2.40389e-05
7 *33:9 *109:9 0.0319477
8 *71:9 *109:9 0.0341542
9 *72:11 *109:9 0.00266665
10 *108:9 *109:9 0.0039959
*RES
1 *419:io_out[4] *109:7 9.225 
2 *109:7 *109:9 105.93 