*SPEF "ieee 1481-1999"
*DESIGN "user_project_wrapper"
*DATE "11:11:11 Fri 11 11, 1111"
*VENDOR "OpenRCX"
*PROGRAM "Parallel Extraction"
*VERSION "1.0"
*DESIGN_FLOW "NAME_SCOPE LOCAL" "PIN_CAP NONE"
*DIVIDER /
*DELIMITER :
*BUS_DELIMITER []
*T_UNIT 1 NS
*C_UNIT 1 PF
*R_UNIT 1 OHM
*L_UNIT 1 HENRY

*NAME_MAP
*1 io_in[0]
*2 io_in[10]
*3 io_in[11]
*4 io_in[12]
*5 io_in[13]
*6 io_in[14]
*7 io_in[15]
*8 io_in[16]
*9 io_in[17]
*10 io_in[18]
*11 io_in[19]
*12 io_in[1]
*13 io_in[20]
*14 io_in[21]
*15 io_in[22]
*16 io_in[23]
*17 io_in[24]
*18 io_in[25]
*19 io_in[26]
*20 io_in[27]
*21 io_in[28]
*22 io_in[29]
*23 io_in[2]
*24 io_in[30]
*25 io_in[31]
*26 io_in[32]
*27 io_in[33]
*28 io_in[34]
*29 io_in[35]
*30 io_in[36]
*31 io_in[37]
*32 io_in[3]
*33 io_in[4]
*34 io_in[5]
*35 io_in[6]
*36 io_in[7]
*37 io_in[8]
*38 io_in[9]
*39 io_oeb[0]
*40 io_oeb[10]
*41 io_oeb[11]
*42 io_oeb[12]
*43 io_oeb[13]
*44 io_oeb[14]
*45 io_oeb[15]
*46 io_oeb[16]
*47 io_oeb[17]
*48 io_oeb[18]
*49 io_oeb[19]
*50 io_oeb[1]
*51 io_oeb[20]
*52 io_oeb[21]
*53 io_oeb[22]
*54 io_oeb[23]
*55 io_oeb[24]
*56 io_oeb[25]
*57 io_oeb[26]
*58 io_oeb[27]
*59 io_oeb[28]
*60 io_oeb[29]
*61 io_oeb[2]
*62 io_oeb[30]
*63 io_oeb[31]
*64 io_oeb[32]
*65 io_oeb[33]
*66 io_oeb[34]
*67 io_oeb[35]
*68 io_oeb[36]
*69 io_oeb[37]
*70 io_oeb[3]
*71 io_oeb[4]
*72 io_oeb[5]
*73 io_oeb[6]
*74 io_oeb[7]
*75 io_oeb[8]
*76 io_oeb[9]
*77 io_out[0]
*78 io_out[10]
*79 io_out[11]
*80 io_out[12]
*81 io_out[13]
*82 io_out[14]
*83 io_out[15]
*84 io_out[16]
*85 io_out[17]
*86 io_out[18]
*87 io_out[19]
*88 io_out[1]
*89 io_out[20]
*90 io_out[21]
*91 io_out[22]
*92 io_out[23]
*93 io_out[24]
*94 io_out[25]
*95 io_out[26]
*96 io_out[27]
*97 io_out[28]
*98 io_out[29]
*99 io_out[2]
*100 io_out[30]
*101 io_out[31]
*102 io_out[32]
*103 io_out[33]
*104 io_out[34]
*105 io_out[35]
*106 io_out[36]
*107 io_out[37]
*108 io_out[3]
*109 io_out[4]
*110 io_out[5]
*111 io_out[6]
*112 io_out[7]
*113 io_out[8]
*114 io_out[9]
*115 la_data_in[0]
*116 la_data_in[10]
*117 la_data_in[11]
*118 la_data_in[12]
*119 la_data_in[13]
*120 la_data_in[14]
*121 la_data_in[15]
*122 la_data_in[16]
*123 la_data_in[17]
*124 la_data_in[18]
*125 la_data_in[19]
*126 la_data_in[1]
*127 la_data_in[20]
*128 la_data_in[21]
*129 la_data_in[22]
*130 la_data_in[23]
*131 la_data_in[24]
*132 la_data_in[25]
*133 la_data_in[26]
*134 la_data_in[27]
*135 la_data_in[28]
*136 la_data_in[29]
*137 la_data_in[2]
*138 la_data_in[30]
*139 la_data_in[31]
*140 la_data_in[32]
*141 la_data_in[33]
*142 la_data_in[34]
*143 la_data_in[35]
*144 la_data_in[36]
*145 la_data_in[37]
*146 la_data_in[38]
*147 la_data_in[39]
*148 la_data_in[3]
*149 la_data_in[40]
*150 la_data_in[41]
*151 la_data_in[42]
*152 la_data_in[43]
*153 la_data_in[44]
*154 la_data_in[45]
*155 la_data_in[46]
*156 la_data_in[47]
*157 la_data_in[48]
*158 la_data_in[49]
*159 la_data_in[4]
*160 la_data_in[50]
*161 la_data_in[51]
*162 la_data_in[52]
*163 la_data_in[53]
*164 la_data_in[54]
*165 la_data_in[55]
*166 la_data_in[56]
*167 la_data_in[57]
*168 la_data_in[58]
*169 la_data_in[59]
*170 la_data_in[5]
*171 la_data_in[60]
*172 la_data_in[61]
*173 la_data_in[62]
*174 la_data_in[63]
*175 la_data_in[6]
*176 la_data_in[7]
*177 la_data_in[8]
*178 la_data_in[9]
*179 la_data_out[0]
*180 la_data_out[10]
*181 la_data_out[11]
*182 la_data_out[12]
*183 la_data_out[13]
*184 la_data_out[14]
*185 la_data_out[15]
*186 la_data_out[16]
*187 la_data_out[17]
*188 la_data_out[18]
*189 la_data_out[19]
*190 la_data_out[1]
*191 la_data_out[20]
*192 la_data_out[21]
*193 la_data_out[22]
*194 la_data_out[23]
*195 la_data_out[24]
*196 la_data_out[25]
*197 la_data_out[26]
*198 la_data_out[27]
*199 la_data_out[28]
*200 la_data_out[29]
*201 la_data_out[2]
*202 la_data_out[30]
*203 la_data_out[31]
*204 la_data_out[32]
*205 la_data_out[33]
*206 la_data_out[34]
*207 la_data_out[35]
*208 la_data_out[36]
*209 la_data_out[37]
*210 la_data_out[38]
*211 la_data_out[39]
*212 la_data_out[3]
*213 la_data_out[40]
*214 la_data_out[41]
*215 la_data_out[42]
*216 la_data_out[43]
*217 la_data_out[44]
*218 la_data_out[45]
*219 la_data_out[46]
*220 la_data_out[47]
*221 la_data_out[48]
*222 la_data_out[49]
*223 la_data_out[4]
*224 la_data_out[50]
*225 la_data_out[51]
*226 la_data_out[52]
*227 la_data_out[53]
*228 la_data_out[54]
*229 la_data_out[55]
*230 la_data_out[56]
*231 la_data_out[57]
*232 la_data_out[58]
*233 la_data_out[59]
*234 la_data_out[5]
*235 la_data_out[60]
*236 la_data_out[61]
*237 la_data_out[62]
*238 la_data_out[63]
*239 la_data_out[6]
*240 la_data_out[7]
*241 la_data_out[8]
*242 la_data_out[9]
*243 la_oenb[0]
*244 la_oenb[10]
*245 la_oenb[11]
*246 la_oenb[12]
*247 la_oenb[13]
*248 la_oenb[14]
*249 la_oenb[15]
*250 la_oenb[16]
*251 la_oenb[17]
*252 la_oenb[18]
*253 la_oenb[19]
*254 la_oenb[1]
*255 la_oenb[20]
*256 la_oenb[21]
*257 la_oenb[22]
*258 la_oenb[23]
*259 la_oenb[24]
*260 la_oenb[25]
*261 la_oenb[26]
*262 la_oenb[27]
*263 la_oenb[28]
*264 la_oenb[29]
*265 la_oenb[2]
*266 la_oenb[30]
*267 la_oenb[31]
*268 la_oenb[32]
*269 la_oenb[33]
*270 la_oenb[34]
*271 la_oenb[35]
*272 la_oenb[36]
*273 la_oenb[37]
*274 la_oenb[38]
*275 la_oenb[39]
*276 la_oenb[3]
*277 la_oenb[40]
*278 la_oenb[41]
*279 la_oenb[42]
*280 la_oenb[43]
*281 la_oenb[44]
*282 la_oenb[45]
*283 la_oenb[46]
*284 la_oenb[47]
*285 la_oenb[48]
*286 la_oenb[49]
*287 la_oenb[4]
*288 la_oenb[50]
*289 la_oenb[51]
*290 la_oenb[52]
*291 la_oenb[53]
*292 la_oenb[54]
*293 la_oenb[55]
*294 la_oenb[56]
*295 la_oenb[57]
*296 la_oenb[58]
*297 la_oenb[59]
*298 la_oenb[5]
*299 la_oenb[60]
*300 la_oenb[61]
*301 la_oenb[62]
*302 la_oenb[63]
*303 la_oenb[6]
*304 la_oenb[7]
*305 la_oenb[8]
*306 la_oenb[9]
*307 user_clock2
*308 user_irq[0]
*309 user_irq[1]
*310 user_irq[2]
*313 wb_clk_i
*314 wb_rst_i
*315 wbs_ack_o
*316 wbs_adr_i[0]
*317 wbs_adr_i[10]
*318 wbs_adr_i[11]
*319 wbs_adr_i[12]
*320 wbs_adr_i[13]
*321 wbs_adr_i[14]
*322 wbs_adr_i[15]
*323 wbs_adr_i[16]
*324 wbs_adr_i[17]
*325 wbs_adr_i[18]
*326 wbs_adr_i[19]
*327 wbs_adr_i[1]
*328 wbs_adr_i[20]
*329 wbs_adr_i[21]
*330 wbs_adr_i[22]
*331 wbs_adr_i[23]
*332 wbs_adr_i[24]
*333 wbs_adr_i[25]
*334 wbs_adr_i[26]
*335 wbs_adr_i[27]
*336 wbs_adr_i[28]
*337 wbs_adr_i[29]
*338 wbs_adr_i[2]
*339 wbs_adr_i[30]
*340 wbs_adr_i[31]
*341 wbs_adr_i[3]
*342 wbs_adr_i[4]
*343 wbs_adr_i[5]
*344 wbs_adr_i[6]
*345 wbs_adr_i[7]
*346 wbs_adr_i[8]
*347 wbs_adr_i[9]
*348 wbs_cyc_i
*349 wbs_dat_i[0]
*350 wbs_dat_i[10]
*351 wbs_dat_i[11]
*352 wbs_dat_i[12]
*353 wbs_dat_i[13]
*354 wbs_dat_i[14]
*355 wbs_dat_i[15]
*356 wbs_dat_i[16]
*357 wbs_dat_i[17]
*358 wbs_dat_i[18]
*359 wbs_dat_i[19]
*360 wbs_dat_i[1]
*361 wbs_dat_i[20]
*362 wbs_dat_i[21]
*363 wbs_dat_i[22]
*364 wbs_dat_i[23]
*365 wbs_dat_i[24]
*366 wbs_dat_i[25]
*367 wbs_dat_i[26]
*368 wbs_dat_i[27]
*369 wbs_dat_i[28]
*370 wbs_dat_i[29]
*371 wbs_dat_i[2]
*372 wbs_dat_i[30]
*373 wbs_dat_i[31]
*374 wbs_dat_i[3]
*375 wbs_dat_i[4]
*376 wbs_dat_i[5]
*377 wbs_dat_i[6]
*378 wbs_dat_i[7]
*379 wbs_dat_i[8]
*380 wbs_dat_i[9]
*381 wbs_dat_o[0]
*382 wbs_dat_o[10]
*383 wbs_dat_o[11]
*384 wbs_dat_o[12]
*385 wbs_dat_o[13]
*386 wbs_dat_o[14]
*387 wbs_dat_o[15]
*388 wbs_dat_o[16]
*389 wbs_dat_o[17]
*390 wbs_dat_o[18]
*391 wbs_dat_o[19]
*392 wbs_dat_o[1]
*393 wbs_dat_o[20]
*394 wbs_dat_o[21]
*395 wbs_dat_o[22]
*396 wbs_dat_o[23]
*397 wbs_dat_o[24]
*398 wbs_dat_o[25]
*399 wbs_dat_o[26]
*400 wbs_dat_o[27]
*401 wbs_dat_o[28]
*402 wbs_dat_o[29]
*403 wbs_dat_o[2]
*404 wbs_dat_o[30]
*405 wbs_dat_o[31]
*406 wbs_dat_o[3]
*407 wbs_dat_o[4]
*408 wbs_dat_o[5]
*409 wbs_dat_o[6]
*410 wbs_dat_o[7]
*411 wbs_dat_o[8]
*412 wbs_dat_o[9]
*413 wbs_sel_i[0]
*414 wbs_sel_i[1]
*415 wbs_sel_i[2]
*416 wbs_sel_i[3]
*417 wbs_stb_i
*418 wbs_we_i
*419 mprj

*PORTS
io_in[0] I
io_in[10] I
io_in[11] I
io_in[12] I
io_in[13] I
io_in[14] I
io_in[15] I
io_in[16] I
io_in[17] I
io_in[18] I
io_in[19] I
io_in[1] I
io_in[20] I
io_in[21] I
io_in[22] I
io_in[23] I
io_in[24] I
io_in[25] I
io_in[26] I
io_in[27] I
io_in[28] I
io_in[29] I
io_in[2] I
io_in[30] I
io_in[31] I
io_in[32] I
io_in[33] I
io_in[34] I
io_in[35] I
io_in[36] I
io_in[37] I
io_in[3] I
io_in[4] I
io_in[5] I
io_in[6] I
io_in[7] I
io_in[8] I
io_in[9] I
io_oeb[0] O
io_oeb[10] O
io_oeb[11] O
io_oeb[12] O
io_oeb[13] O
io_oeb[14] O
io_oeb[15] O
io_oeb[16] O
io_oeb[17] O
io_oeb[18] O
io_oeb[19] O
io_oeb[1] O
io_oeb[20] O
io_oeb[21] O
io_oeb[22] O
io_oeb[23] O
io_oeb[24] O
io_oeb[25] O
io_oeb[26] O
io_oeb[27] O
io_oeb[28] O
io_oeb[29] O
io_oeb[2] O
io_oeb[30] O
io_oeb[31] O
io_oeb[32] O
io_oeb[33] O
io_oeb[34] O
io_oeb[35] O
io_oeb[36] O
io_oeb[37] O
io_oeb[3] O
io_oeb[4] O
io_oeb[5] O
io_oeb[6] O
io_oeb[7] O
io_oeb[8] O
io_oeb[9] O
io_out[0] O
io_out[10] O
io_out[11] O
io_out[12] O
io_out[13] O
io_out[14] O
io_out[15] O
io_out[16] O
io_out[17] O
io_out[18] O
io_out[19] O
io_out[1] O
io_out[20] O
io_out[21] O
io_out[22] O
io_out[23] O
io_out[24] O
io_out[25] O
io_out[26] O
io_out[27] O
io_out[28] O
io_out[29] O
io_out[2] O
io_out[30] O
io_out[31] O
io_out[32] O
io_out[33] O
io_out[34] O
io_out[35] O
io_out[36] O
io_out[37] O
io_out[3] O
io_out[4] O
io_out[5] O
io_out[6] O
io_out[7] O
io_out[8] O
io_out[9] O
la_data_in[0] I
la_data_in[10] I
la_data_in[11] I
la_data_in[12] I
la_data_in[13] I
la_data_in[14] I
la_data_in[15] I
la_data_in[16] I
la_data_in[17] I
la_data_in[18] I
la_data_in[19] I
la_data_in[1] I
la_data_in[20] I
la_data_in[21] I
la_data_in[22] I
la_data_in[23] I
la_data_in[24] I
la_data_in[25] I
la_data_in[26] I
la_data_in[27] I
la_data_in[28] I
la_data_in[29] I
la_data_in[2] I
la_data_in[30] I
la_data_in[31] I
la_data_in[32] I
la_data_in[33] I
la_data_in[34] I
la_data_in[35] I
la_data_in[36] I
la_data_in[37] I
la_data_in[38] I
la_data_in[39] I
la_data_in[3] I
la_data_in[40] I
la_data_in[41] I
la_data_in[42] I
la_data_in[43] I
la_data_in[44] I
la_data_in[45] I
la_data_in[46] I
la_data_in[47] I
la_data_in[48] I
la_data_in[49] I
la_data_in[4] I
la_data_in[50] I
la_data_in[51] I
la_data_in[52] I
la_data_in[53] I
la_data_in[54] I
la_data_in[55] I
la_data_in[56] I
la_data_in[57] I
la_data_in[58] I
la_data_in[59] I
la_data_in[5] I
la_data_in[60] I
la_data_in[61] I
la_data_in[62] I
la_data_in[63] I
la_data_in[6] I
la_data_in[7] I
la_data_in[8] I
la_data_in[9] I
la_data_out[0] O
la_data_out[10] O
la_data_out[11] O
la_data_out[12] O
la_data_out[13] O
la_data_out[14] O
la_data_out[15] O
la_data_out[16] O
la_data_out[17] O
la_data_out[18] O
la_data_out[19] O
la_data_out[1] O
la_data_out[20] O
la_data_out[21] O
la_data_out[22] O
la_data_out[23] O
la_data_out[24] O
la_data_out[25] O
la_data_out[26] O
la_data_out[27] O
la_data_out[28] O
la_data_out[29] O
la_data_out[2] O
la_data_out[30] O
la_data_out[31] O
la_data_out[32] O
la_data_out[33] O
la_data_out[34] O
la_data_out[35] O
la_data_out[36] O
la_data_out[37] O
la_data_out[38] O
la_data_out[39] O
la_data_out[3] O
la_data_out[40] O
la_data_out[41] O
la_data_out[42] O
la_data_out[43] O
la_data_out[44] O
la_data_out[45] O
la_data_out[46] O
la_data_out[47] O
la_data_out[48] O
la_data_out[49] O
la_data_out[4] O
la_data_out[50] O
la_data_out[51] O
la_data_out[52] O
la_data_out[53] O
la_data_out[54] O
la_data_out[55] O
la_data_out[56] O
la_data_out[57] O
la_data_out[58] O
la_data_out[59] O
la_data_out[5] O
la_data_out[60] O
la_data_out[61] O
la_data_out[62] O
la_data_out[63] O
la_data_out[6] O
la_data_out[7] O
la_data_out[8] O
la_data_out[9] O
la_oenb[0] I
la_oenb[10] I
la_oenb[11] I
la_oenb[12] I
la_oenb[13] I
la_oenb[14] I
la_oenb[15] I
la_oenb[16] I
la_oenb[17] I
la_oenb[18] I
la_oenb[19] I
la_oenb[1] I
la_oenb[20] I
la_oenb[21] I
la_oenb[22] I
la_oenb[23] I
la_oenb[24] I
la_oenb[25] I
la_oenb[26] I
la_oenb[27] I
la_oenb[28] I
la_oenb[29] I
la_oenb[2] I
la_oenb[30] I
la_oenb[31] I
la_oenb[32] I
la_oenb[33] I
la_oenb[34] I
la_oenb[35] I
la_oenb[36] I
la_oenb[37] I
la_oenb[38] I
la_oenb[39] I
la_oenb[3] I
la_oenb[40] I
la_oenb[41] I
la_oenb[42] I
la_oenb[43] I
la_oenb[44] I
la_oenb[45] I
la_oenb[46] I
la_oenb[47] I
la_oenb[48] I
la_oenb[49] I
la_oenb[4] I
la_oenb[50] I
la_oenb[51] I
la_oenb[52] I
la_oenb[53] I
la_oenb[54] I
la_oenb[55] I
la_oenb[56] I
la_oenb[57] I
la_oenb[58] I
la_oenb[59] I
la_oenb[5] I
la_oenb[60] I
la_oenb[61] I
la_oenb[62] I
la_oenb[63] I
la_oenb[6] I
la_oenb[7] I
la_oenb[8] I
la_oenb[9] I
user_clock2 I
user_irq[0] O
user_irq[1] O
user_irq[2] O
wb_clk_i I
wb_rst_i I
wbs_ack_o O
wbs_adr_i[0] I
wbs_adr_i[10] I
wbs_adr_i[11] I
wbs_adr_i[12] I
wbs_adr_i[13] I
wbs_adr_i[14] I
wbs_adr_i[15] I
wbs_adr_i[16] I
wbs_adr_i[17] I
wbs_adr_i[18] I
wbs_adr_i[19] I
wbs_adr_i[1] I
wbs_adr_i[20] I
wbs_adr_i[21] I
wbs_adr_i[22] I
wbs_adr_i[23] I
wbs_adr_i[24] I
wbs_adr_i[25] I
wbs_adr_i[26] I
wbs_adr_i[27] I
wbs_adr_i[28] I
wbs_adr_i[29] I
wbs_adr_i[2] I
wbs_adr_i[30] I
wbs_adr_i[31] I
wbs_adr_i[3] I
wbs_adr_i[4] I
wbs_adr_i[5] I
wbs_adr_i[6] I
wbs_adr_i[7] I
wbs_adr_i[8] I
wbs_adr_i[9] I
wbs_cyc_i I
wbs_dat_i[0] I
wbs_dat_i[10] I
wbs_dat_i[11] I
wbs_dat_i[12] I
wbs_dat_i[13] I
wbs_dat_i[14] I
wbs_dat_i[15] I
wbs_dat_i[16] I
wbs_dat_i[17] I
wbs_dat_i[18] I
wbs_dat_i[19] I
wbs_dat_i[1] I
wbs_dat_i[20] I
wbs_dat_i[21] I
wbs_dat_i[22] I
wbs_dat_i[23] I
wbs_dat_i[24] I
wbs_dat_i[25] I
wbs_dat_i[26] I
wbs_dat_i[27] I
wbs_dat_i[28] I
wbs_dat_i[29] I
wbs_dat_i[2] I
wbs_dat_i[30] I
wbs_dat_i[31] I
wbs_dat_i[3] I
wbs_dat_i[4] I
wbs_dat_i[5] I
wbs_dat_i[6] I
wbs_dat_i[7] I
wbs_dat_i[8] I
wbs_dat_i[9] I
wbs_dat_o[0] O
wbs_dat_o[10] O
wbs_dat_o[11] O
wbs_dat_o[12] O
wbs_dat_o[13] O
wbs_dat_o[14] O
wbs_dat_o[15] O
wbs_dat_o[16] O
wbs_dat_o[17] O
wbs_dat_o[18] O
wbs_dat_o[19] O
wbs_dat_o[1] O
wbs_dat_o[20] O
wbs_dat_o[21] O
wbs_dat_o[22] O
wbs_dat_o[23] O
wbs_dat_o[24] O
wbs_dat_o[25] O
wbs_dat_o[26] O
wbs_dat_o[27] O
wbs_dat_o[28] O
wbs_dat_o[29] O
wbs_dat_o[2] O
wbs_dat_o[30] O
wbs_dat_o[31] O
wbs_dat_o[3] O
wbs_dat_o[4] O
wbs_dat_o[5] O
wbs_dat_o[6] O
wbs_dat_o[7] O
wbs_dat_o[8] O
wbs_dat_o[9] O
wbs_sel_i[0] I
wbs_sel_i[1] I
wbs_sel_i[2] I
wbs_sel_i[3] I
wbs_stb_i I
wbs_we_i I

*D_NET *1 0.0919689
*CONN
*P io_in[0] I
*I *419:io_in[0] I *D user_proj_example
*CAP
1 io_in[0] 0.0251605
2 *419:io_in[0] 0.00499999
3 *1:5 0.0301605
4 *419:io_in[0] *77:11 0.00172283
5 *1:5 *156:9 0
6 *1:5 *158:9 0
7 *1:5 *160:9 0
8 *1:5 *172:9 0.0190792
9 *1:5 *173:15 0.00910653
10 *1:5 *210:9 0.00110467
11 *1:5 *228:9 0
12 *1:5 *277:9 0.000634674
*RES
1 io_in[0] *1:5 235.03 
2 *1:5 *419:io_in[0] 42.706 
*END

*D_NET *12 0.0946459
*CONN
*P io_in[1] I
*I *419:io_in[1] I *D user_proj_example
*CAP
1 io_in[1] 0.0329965
2 *419:io_in[1] 0.0005244
3 *12:9 0.00281553
4 *12:5 0.0352876
5 *12:5 *77:11 0
6 *12:9 *39:9 0.0089301
7 *12:9 *50:9 0.00330515
8 *12:9 *88:9 0.0107866
*RES
1 io_in[1] *12:5 234.878 
2 *12:5 *12:9 48.352 
3 *12:9 *419:io_in[1] 8.186 
*END

*D_NET *23 0.113549
*CONN
*P io_in[2] I
*I *419:io_in[2] I *D user_proj_example
*CAP
1 io_in[2] 0.0329946
2 *419:io_in[2] 0.0005244
3 *23:9 0.0010862
4 *23:7 0.000561797
5 *23:5 0.0329946
6 *23:9 *50:9 0.0146046
7 *23:9 *61:9 0.00906211
8 *23:9 *88:9 0.0052286
9 *23:9 *99:9 0.0164926
*RES
1 io_in[2] *23:5 234.878 
2 *23:5 *23:7 4.5 
3 *23:7 *23:9 57.532 
4 *23:9 *419:io_in[2] 8.186 
*END

*D_NET *24 0.053483
*CONN
*P io_in[30] I
*I *419:io_in[8] I *D user_proj_example
*CAP
1 io_in[30] 0.000717091
2 *419:io_in[8] 0.00312376
3 *24:9 0.0135674
4 *24:7 0.0111607
5 *24:9 *62:9 0.0249141
*RES
1 io_in[30] *24:7 9.706 
2 *24:7 *24:9 104.804 
3 *24:9 *419:io_in[8] 26.122 
*END

*D_NET *25 0.0577074
*CONN
*P io_in[31] I
*I *419:io_in[9] I *D user_proj_example
*CAP
1 io_in[31] 0.000785731
2 *419:io_in[9] 0.00309616
3 *25:9 0.00983122
4 *25:7 0.0075208
5 *25:9 *26:9 0.00301321
6 *25:9 *62:9 0.0315089
7 *25:9 *102:9 0.00195138
*RES
1 io_in[31] *25:7 10.01 
2 *25:7 *25:9 94.772 
3 *25:9 *419:io_in[9] 25.818 
*END

*D_NET *26 0.0522247
*CONN
*P io_in[32] I
*I *419:io_in[10] I *D user_proj_example
*CAP
1 io_in[32] 0.000717091
2 *419:io_in[10] 0.00317847
3 *26:9 0.00921263
4 *26:7 0.00675125
5 *26:9 *62:9 0.00336191
6 *26:9 *102:9 0.0259902
7 *25:9 *26:9 0.00301321
*RES
1 io_in[32] *26:7 9.706 
2 *26:7 *26:9 84.892 
3 *26:9 *419:io_in[10] 26.122 
*END

*D_NET *27 0.0450063
*CONN
*P io_in[33] I
*I *419:io_in[11] I *D user_proj_example
*CAP
1 io_in[33] 0.000806356
2 *419:io_in[11] 0.00306185
3 *27:9 0.00849178
4 *27:7 0.00623629
5 *27:9 *28:9 0.00146338
6 *27:9 *64:9 0.0231732
7 *27:9 *65:9 0.00177344
*RES
1 io_in[33] *27:7 10.162 
2 *27:7 *27:9 74.708 
3 *27:9 *419:io_in[11] 25.666 
*END

*D_NET *28 0.0508594
*CONN
*P io_in[34] I
*I *419:io_in[12] I *D user_proj_example
*CAP
1 io_in[34] 0.000737728
2 *419:io_in[12] 0.00313047
3 *28:9 0.00569396
4 *28:7 0.00330122
5 *28:9 *65:9 0.0189987
6 *28:9 *104:9 0.0175339
7 *27:9 *28:9 0.00146338
*RES
1 io_in[34] *28:7 9.858 
2 *28:7 *28:9 64.676 
3 *28:9 *419:io_in[12] 25.97 
*END

*D_NET *29 0.033394
*CONN
*P io_in[35] I
*I *419:io_in[13] I *D user_proj_example
*CAP
1 io_in[35] 0.000717091
2 *419:io_in[13] 0.00315111
3 *29:9 0.007116
4 *29:7 0.00468197
5 *29:9 *66:9 0.000877207
6 *29:9 *104:9 0.00342538
7 *29:9 *105:9 0.0134253
*RES
1 io_in[35] *29:7 9.706 
2 *29:7 *29:9 54.644 
3 *29:9 *419:io_in[13] 26.122 
*END

*D_NET *30 0.0252398
*CONN
*P io_in[36] I
*I *419:io_in[14] I *D user_proj_example
*CAP
1 io_in[36] 0.00210331
2 *419:io_in[14] 0.000579051
3 *30:11 0.00679221
4 *30:7 0.00831647
5 *30:7 *68:7 0.00744878
*RES
1 io_in[36] *30:7 27.946 
2 *30:7 *30:11 49.416 
3 *30:11 *419:io_in[14] 3.382 
*END

*D_NET *31 0.0217134
*CONN
*P io_in[37] I
*I *419:io_in[15] I *D user_proj_example
*CAP
1 io_in[37] 0.00449956
2 *419:io_in[15] 0.00313744
3 *31:11 0.007637
4 *31:11 io_oeb[36] 0.00643943
*RES
1 io_in[37] *31:11 48.938 
2 *31:11 *419:io_in[15] 21.622 
*END

*D_NET *32 0.0934128
*CONN
*P io_in[3] I
*I *419:io_in[3] I *D user_proj_example
*CAP
1 io_in[3] 0.0328983
2 *419:io_in[3] 0.000623042
3 *32:9 0.00632657
4 *32:7 0.00570352
5 *32:5 0.0328983
6 *419:io_in[3] io_out[4] 2.40822e-05
7 *32:9 *33:9 0.00720602
8 *32:9 *61:9 0.00716599
9 *32:9 *108:9 0.000566935
*RES
1 io_in[3] *32:5 234.27 
2 *32:5 *32:7 4.5 
3 *32:7 *32:9 71.212 
4 *32:9 *419:io_in[3] 8.794 
*END

*D_NET *33 0.114958
*CONN
*P io_in[4] I
*I *419:io_in[4] I *D user_proj_example
*CAP
1 io_in[4] 0.0329327
2 *419:io_in[4] 0.00062736
3 *33:9 0.00572567
4 *33:7 0.00509831
5 *33:5 0.0329327
6 *33:9 *108:9 0.00259802
7 *33:9 *109:9 0.0278372
8 *32:9 *33:9 0.00720602
*RES
1 io_in[4] *33:5 234.422 
2 *33:5 *33:7 4.5 
3 *33:7 *33:9 84.892 
4 *33:9 *419:io_in[4] 8.642 
*END

*D_NET *34 0.141863
*CONN
*P io_in[5] I
*I *419:io_in[5] I *D user_proj_example
*CAP
1 io_in[5] 0.0330219
2 *419:io_in[5] 0.0005244
3 *34:9 0.00159001
4 *34:7 0.00106561
5 *34:5 0.0330219
6 *34:9 *70:9 0.00354823
7 *34:9 *71:9 0.0316841
8 *34:9 *73:9 0.00184571
9 *34:9 *110:9 0.033554
10 *34:9 *111:9 0.00200741
*RES
1 io_in[5] *34:5 234.878 
2 *34:5 *34:7 4.5 
3 *34:7 *34:9 98.572 
4 *34:9 *419:io_in[5] 8.186 
*END

*D_NET *35 0.150368
*CONN
*P io_in[6] I
*I *419:io_in[6] I *D user_proj_example
*CAP
1 io_in[6] 0.032912
2 *419:io_in[6] 0.00066168
3 *35:9 0.00264509
4 *35:7 0.00198341
5 *35:5 0.032912
6 *35:9 *71:9 0.00269456
7 *35:9 *72:11 0.0372654
8 *35:9 *111:9 0.0392939
*RES
1 io_in[6] *35:5 234.27 
2 *35:5 *35:7 4.5 
3 *35:7 *35:9 112.252 
4 *35:9 *419:io_in[6] 8.794 
*END

*D_NET *36 0.162417
*CONN
*P io_in[7] I
*I *419:io_in[7] I *D user_proj_example
*CAP
1 io_in[7] 0.033015
2 *419:io_in[7] 0.00055872
3 *36:9 0.00276079
4 *36:7 0.00220207
5 *36:5 0.033015
6 *36:9 *73:9 0.0430873
7 *36:9 *110:9 0.00282671
8 *36:9 *112:9 0.0449519
*RES
1 io_in[7] *36:5 234.726 
2 *36:5 *36:7 4.5 
3 *36:7 *36:9 125.932 
4 *36:9 *419:io_in[7] 8.338 
*END

*D_NET *39 0.0886725
*CONN
*P io_oeb[0] O
*I *419:io_oeb[0] O *D user_proj_example
*CAP
1 io_oeb[0] 0.0329739
2 *419:io_oeb[0] 0.00342653
3 *39:11 0.0329739
4 *39:9 0.00342653
5 *39:9 *77:11 0.0069415
6 *12:9 *39:9 0.0089301
*RES
1 *419:io_oeb[0] *39:9 47.478 
2 *39:9 *39:11 4.5 
3 *39:11 io_oeb[0] 234.726 
*END

*D_NET *50 0.0948214
*CONN
*P io_oeb[1] O
*I *419:io_oeb[1] O *D user_proj_example
*CAP
1 io_oeb[1] 0.0329603
2 *419:io_oeb[1] 0.000672992
3 *50:11 0.0329603
4 *50:9 0.00378972
5 *50:7 0.00446271
6 *50:7 io_oeb[2] 8.81325e-07
7 *50:9 *88:9 0.00206492
8 *12:9 *50:9 0.00330515
9 *23:9 *50:9 0.0146046
*RES
1 *419:io_oeb[1] *50:7 8.338 
2 *50:7 *50:9 52.972 
3 *50:9 *50:11 4.5 
4 *50:11 io_oeb[1] 234.726 
*END

*D_NET *61 0.103016
*CONN
*P io_oeb[2] O
*I *419:io_oeb[2] O *D user_proj_example
*CAP
1 io_oeb[2] 0.0329598
2 *419:io_oeb[2] 0.00055872
3 *61:11 0.0329598
4 *61:9 0.00199542
5 *61:7 0.00255414
6 *61:9 *99:9 0.00292104
7 *61:9 *108:9 0.0128383
8 *23:9 *61:9 0.00906211
9 *32:9 *61:9 0.00716599
10 *50:7 io_oeb[2] 8.81325e-07
*RES
1 *419:io_oeb[2] *61:7 8.338 
2 *61:7 *61:9 66.652 
3 *61:9 *61:11 4.5 
4 *61:11 io_oeb[2] 234.726 
*END

*D_NET *62 0.0751682
*CONN
*P io_oeb[30] O
*I *419:io_oeb[8] O *D user_proj_example
*CAP
1 io_oeb[30] 0.000751411
2 *419:io_oeb[8] 0.0031168
3 *62:9 0.0045748
4 *62:7 0.00694019
5 *24:9 *62:9 0.0249141
6 *25:9 *62:9 0.0315089
7 *26:9 *62:9 0.00336191
*RES
1 *419:io_oeb[8] *62:7 25.97 
2 *62:7 *62:9 98.116 
3 *62:9 io_oeb[30] 9.858 
*END

*D_NET *63 0.0334518
*CONN
*P io_oeb[31] O
*I *419:io_oeb[9] O *D user_proj_example
*CAP
1 io_oeb[31] 0.0041135
2 *419:io_oeb[9] 0.000469431
3 *63:9 0.0162565
4 *63:7 0.0126124
*RES
1 *419:io_oeb[9] *63:7 7.882 
2 *63:7 *63:9 88.388 
3 *63:9 io_oeb[31] 27.946 
*END

*D_NET *64 0.0626934
*CONN
*P io_oeb[32] O
*I *419:io_oeb[10] O *D user_proj_example
*CAP
1 io_oeb[32] 0.00094793
2 *419:io_oeb[10] 0.00310983
3 *64:9 0.00329804
4 *64:7 0.00545993
5 *64:7 io_out[31] 0
6 *64:9 *65:9 0.00217917
7 *64:9 *102:9 0.0245253
8 *27:9 *64:9 0.0231732
*RES
1 *419:io_oeb[10] *64:7 25.818 
2 *64:7 *64:9 78.052 
3 *64:9 io_oeb[32] 10.01 
*END

*D_NET *65 0.0407329
*CONN
*P io_oeb[33] O
*I *419:io_oeb[11] O *D user_proj_example
*CAP
1 io_oeb[33] 0.000717091
2 *419:io_oeb[11] 0.00316479
3 *65:9 0.00572598
4 *65:7 0.00817368
5 *27:9 *65:9 0.00177344
6 *28:9 *65:9 0.0189987
7 *64:9 *65:9 0.00217917
*RES
1 *419:io_oeb[11] *65:7 26.122 
2 *65:7 *65:9 68.172 
3 *65:9 io_oeb[33] 9.706 
*END

*D_NET *66 0.0363294
*CONN
*P io_oeb[34] O
*I *419:io_oeb[12] O *D user_proj_example
*CAP
1 io_oeb[34] 0.00098225
2 *419:io_oeb[12] 0.00306185
3 *66:9 0.00521995
4 *66:7 0.00729955
5 *66:9 *104:9 0.0161769
6 *66:9 *105:9 0.00271176
7 *29:9 *66:9 0.000877207
*RES
1 *419:io_oeb[12] *66:7 25.666 
2 *66:7 *66:9 57.988 
3 *66:9 io_oeb[34] 10.162 
*END

*D_NET *67 0.0293671
*CONN
*P io_oeb[35] O
*I *419:io_oeb[13] O *D user_proj_example
*CAP
1 io_oeb[35] 0.000772036
2 *419:io_oeb[13] 0.00308249
3 *67:9 0.00527667
4 *67:7 0.00758712
5 *67:9 *105:9 0.0120861
6 *67:9 *106:11 0.000562654
*RES
1 *419:io_oeb[13] *67:7 25.818 
2 *67:7 *67:9 47.956 
3 *67:9 io_oeb[35] 10.01 
*END

*D_NET *68 0.0327814
*CONN
*P io_oeb[36] O
*I *419:io_oeb[14] O *D user_proj_example
*CAP
1 io_oeb[36] 0.00369659
2 *419:io_oeb[14] 0.00182135
3 *68:7 0.00551794
4 io_oeb[36] *106:11 0.00785732
5 *30:7 *68:7 0.00744878
6 *31:11 io_oeb[36] 0.00643943
*RES
1 *419:io_oeb[14] *68:7 25.97 
2 *68:7 io_oeb[36] 47.782 
*END

*D_NET *69 0.0155946
*CONN
*P io_oeb[37] O
*I *419:io_oeb[15] O *D user_proj_example
*CAP
1 io_oeb[37] 0.00465985
2 *419:io_oeb[15] 0.00313743
3 *69:7 0.00779728
*RES
1 *419:io_oeb[15] *69:7 26.122 
2 *69:7 io_oeb[37] 37.598 
*END

*D_NET *70 0.109061
*CONN
*P io_oeb[3] O
*I *419:io_oeb[3] O *D user_proj_example
*CAP
1 io_oeb[3] 0.0330426
2 *419:io_oeb[3] 0.00049008
3 *70:11 0.0330426
4 *70:9 0.00573189
5 *70:7 0.00622197
6 *70:9 *71:9 0.00292999
7 *70:9 *108:9 0.0240536
8 *34:9 *70:9 0.00354823
*RES
1 *419:io_oeb[3] *70:7 8.034 
2 *70:7 *70:9 80.332 
3 *70:9 *70:11 4.5 
4 *70:11 io_oeb[3] 235.03 
*END

*D_NET *71 0.137693
*CONN
*P io_oeb[4] O
*I *419:io_oeb[4] O *D user_proj_example
*CAP
1 io_oeb[4] 0.0329876
2 *419:io_oeb[4] 0.00055872
3 *71:11 0.0329876
4 *71:9 0.000445995
5 *71:7 0.00100472
6 *71:9 *72:11 2.33965e-05
7 *71:9 *108:9 0.00169168
8 *71:9 *109:9 0.0297607
9 *71:9 *111:9 0.000924188
10 *34:9 *71:9 0.0316841
11 *35:9 *71:9 0.00269456
12 *70:9 *71:9 0.00292999
*RES
1 *419:io_oeb[4] *71:7 8.338 
2 *71:7 *71:9 94.012 
3 *71:9 *71:11 4.5 
4 *71:11 io_oeb[4] 234.726 
*END

*D_NET *72 0.122711
*CONN
*P io_oeb[5] O
*I *419:io_oeb[5] O *D user_proj_example
*CAP
1 io_oeb[5] 0.0328777
2 *419:io_oeb[5] 0.000675559
3 *72:13 0.0328777
4 *72:11 0.0078146
5 *72:9 0.00849016
6 *72:9 io_oeb[7] 0.000143693
7 *72:11 *109:9 0.0025423
8 *35:9 *72:11 0.0372654
9 *71:9 *72:11 2.33965e-05
*RES
1 *419:io_oeb[5] *72:9 9.326 
2 *72:9 *72:11 107.236 
3 *72:11 *72:13 4.5 
4 *72:13 io_oeb[5] 234.118 
*END

*D_NET *73 0.158592
*CONN
*P io_oeb[6] O
*I *419:io_oeb[6] O *D user_proj_example
*CAP
1 io_oeb[6] 0.0329807
2 *419:io_oeb[6] 0.00059304
3 *73:11 0.0329807
4 *73:9 0.00202133
5 *73:7 0.00261437
6 *73:9 *110:9 0.00130501
7 *73:9 *111:9 0.0411639
8 *34:9 *73:9 0.00184571
9 *36:9 *73:9 0.0430873
*RES
1 *419:io_oeb[6] *73:7 8.49 
2 *73:7 *73:9 121.372 
3 *73:9 *73:11 4.5 
4 *73:11 io_oeb[6] 234.574 
*END

*D_NET *74 0.136149
*CONN
*P io_oeb[7] O
*I *419:io_oeb[7] O *D user_proj_example
*CAP
1 io_oeb[7] 0.0330116
2 *419:io_oeb[7] 0.00049008
3 *74:11 0.0330116
4 *74:9 0.0110639
5 *74:7 0.011554
6 *74:9 *112:9 0.0468746
7 *72:9 io_oeb[7] 0.000143693
*RES
1 *419:io_oeb[7] *74:7 8.034 
2 *74:7 *74:9 135.052 
3 *74:9 *74:11 4.5 
4 *74:11 io_oeb[7] 235.03 
*END

*D_NET *77 0.134596
*CONN
*P io_out[0] O
*I *419:io_out[0] O *D user_proj_example
*CAP
1 io_out[0] 0.0198726
2 *419:io_out[0] 0.00373238
3 *77:11 0.023605
4 io_out[0] *236:6 0.00742148
5 io_out[0] *294:9 0.0641538
6 io_out[0] *299:19 0.00714624
7 *419:io_in[0] *77:11 0.00172283
8 *12:5 *77:11 0
9 *39:9 *77:11 0.0069415
*RES
1 *419:io_out[0] *77:11 47.722 
2 *77:11 io_out[0] 234.574 
*END

*D_NET *88 0.0920472
*CONN
*P io_out[1] O
*I *419:io_out[1] O *D user_proj_example
*CAP
1 io_out[1] 0.0330289
2 *419:io_out[1] 0.00049008
3 *88:11 0.0330289
4 *88:9 0.00346452
5 *88:7 0.0039546
6 *12:9 *88:9 0.0107866
7 *23:9 *88:9 0.0052286
8 *50:9 *88:9 0.00206492
*RES
1 *419:io_out[1] *88:7 8.034 
2 *88:7 *88:9 48.412 
3 *88:9 *88:11 4.5 
4 *88:11 io_out[1] 235.03 
*END

*D_NET *99 0.0988322
*CONN
*P io_out[2] O
*I *419:io_out[2] O *D user_proj_example
*CAP
1 io_out[2] 0.0330289
2 *419:io_out[2] 0.00049008
3 *99:11 0.0330289
4 *99:9 0.00444686
5 *99:7 0.00493694
6 *99:9 *108:9 0.0034869
7 *23:9 *99:9 0.0164926
8 *61:9 *99:9 0.00292104
*RES
1 *419:io_out[2] *99:7 8.034 
2 *99:7 *99:9 62.092 
3 *99:9 *99:11 4.5 
4 *99:11 io_out[2] 235.03 
*END

*D_NET *100 0.0357752
*CONN
*P io_out[30] O
*I *419:io_out[8] O *D user_proj_example
*CAP
1 io_out[30] 0.00144565
2 *419:io_out[8] 0.00242256
3 *100:9 0.015465
4 *100:7 0.0164419
*RES
1 *419:io_out[8] *100:7 21.562 
2 *100:7 *100:9 101.612 
3 *100:9 io_out[30] 14.266 
*END

*D_NET *101 0.0330178
*CONN
*P io_out[31] O
*I *419:io_out[9] O *D user_proj_example
*CAP
1 io_out[31] 0.00217422
2 *419:io_out[9] 0.00170767
3 *101:9 0.0148012
4 *101:7 0.0143347
5 *64:7 io_out[31] 0
*RES
1 *419:io_out[9] *101:7 17.002 
2 *101:7 *101:9 91.428 
3 *101:9 io_out[31] 18.826 
*END

*D_NET *102 0.0656751
*CONN
*P io_out[32] O
*I *419:io_out[10] O *D user_proj_example
*CAP
1 io_out[32] 0.000737728
2 *419:io_out[10] 0.00314415
3 *102:9 0.00345994
4 *102:7 0.00586636
5 *25:9 *102:9 0.00195138
6 *26:9 *102:9 0.0259902
7 *64:9 *102:9 0.0245253
*RES
1 *419:io_out[10] *102:7 25.97 
2 *102:7 *102:9 81.396 
3 *102:9 io_out[32] 9.858 
*END

*D_NET *103 0.0276551
*CONN
*P io_out[33] O
*I *419:io_out[11] O *D user_proj_example
*CAP
1 io_out[33] 0.00341246
2 *419:io_out[11] 0.000469431
3 *103:9 0.0133581
4 *103:7 0.0104151
*RES
1 *419:io_out[11] *103:7 7.882 
2 *103:7 *103:9 71.668 
3 *103:9 io_out[33] 27.946 
*END

*D_NET *104 0.0487372
*CONN
*P io_out[34] O
*I *419:io_out[12] O *D user_proj_example
*CAP
1 io_out[34] 0.000772036
2 *419:io_out[12] 0.00309616
3 *104:9 0.00270435
4 *104:7 0.00502847
5 *28:9 *104:9 0.0175339
6 *29:9 *104:9 0.00342538
7 *66:9 *104:9 0.0161769
*RES
1 *419:io_out[12] *104:7 25.818 
2 *104:7 *104:9 61.332 
3 *104:9 io_out[34] 10.01 
*END

*D_NET *105 0.0402114
*CONN
*P io_out[35] O
*I *419:io_out[13] O *D user_proj_example
*CAP
1 io_out[35] 0.000737728
2 *419:io_out[13] 0.0031168
3 *105:9 0.00287734
4 *105:7 0.0052564
5 *29:9 *105:9 0.0134253
6 *66:9 *105:9 0.00271176
7 *67:9 *105:9 0.0120861
*RES
1 *419:io_out[13] *105:7 25.97 
2 *105:7 *105:9 51.452 
3 *105:9 io_out[35] 9.858 
*END

*D_NET *106 0.024655
*CONN
*P io_out[36] O
*I *419:io_out[14] O *D user_proj_example
*CAP
1 io_out[36] 0.000717091
2 *419:io_out[14] 0.0031511
3 *106:11 0.00496643
4 *106:7 0.00740045
5 io_oeb[36] *106:11 0.00785732
6 *67:9 *106:11 0.000562654
*RES
1 *419:io_out[14] *106:7 26.122 
2 *106:7 *106:11 45.768 
3 *106:11 io_out[36] 5.206 
*END

*D_NET *107 0.0166203
*CONN
*P io_out[37] O
*I *419:io_out[15] O *D user_proj_example
*CAP
1 io_out[37] 0.00338509
2 *419:io_out[15] 0.00492506
3 *107:11 0.00831015
*RES
1 *419:io_out[15] *107:11 43.922 
2 *107:11 io_out[37] 23.446 
*END

*D_NET *108 0.118535
*CONN
*P io_out[3] O
*I *419:io_out[3] O *D user_proj_example
*CAP
1 io_out[3] 0.0330082
2 *419:io_out[3] 0.0005244
3 *108:11 0.0330082
4 *108:9 0.00125487
5 *108:7 0.00177927
6 *108:9 *109:9 0.00372477
7 *32:9 *108:9 0.000566935
8 *33:9 *108:9 0.00259802
9 *61:9 *108:9 0.0128383
10 *70:9 *108:9 0.0240536
11 *71:9 *108:9 0.00169168
12 *99:9 *108:9 0.0034869
*RES
1 *419:io_out[3] *108:7 8.186 
2 *108:7 *108:9 75.772 
3 *108:9 *108:11 4.5 
4 *108:11 io_out[3] 234.878 
*END

*D_NET *109 0.132709
*CONN
*P io_out[4] O
*I *419:io_out[4] O *D user_proj_example
*CAP
1 io_out[4] 0.032942
2 *419:io_out[4] 0.00059304
3 *109:11 0.032942
4 *109:9 0.000875034
5 *109:7 0.00146807
6 *419:io_in[3] io_out[4] 2.40822e-05
7 *33:9 *109:9 0.0278372
8 *71:9 *109:9 0.0297607
9 *72:11 *109:9 0.0025423
10 *108:9 *109:9 0.00372477
*RES
1 *419:io_out[4] *109:7 8.49 
2 *109:7 *109:9 89.452 
3 *109:9 *109:11 4.5 
4 *109:11 io_out[4] 234.574 
*END

*D_NET *110 0.11969
*CONN
*P io_out[5] O
*I *419:io_out[5] O *D user_proj_example
*CAP
1 io_out[5] 0.0330563